
 OpenBabel08182513113D

 52 52  0  0  0  0  0  0  0  0999 V2000
    8.5541   -0.5943   -2.2031 O   0  0  0  0  0  0  0  0  0  0  0  0
    0.8498    0.8784    0.3788 C   0  0  0  0  0  0  0  0  0  0  0  0
    1.8089   -0.3082    0.2263 C   0  0  0  0  0  0  0  0  0  0  0  0
   -0.6099    0.4092    0.3817 C   0  0  0  0  0  0  0  0  0  0  0  0
    3.2688    0.1608    0.2240 C   0  0  0  0  0  0  0  0  0  0  0  0
   -1.5690    1.5959    0.5342 C   0  0  0  0  0  0  0  0  0  0  0  0
    4.2279   -1.0274    0.0653 C   0  0  0  0  0  0  0  0  0  0  0  0
   -3.0282    1.1269    0.5373 C   0  0  0  0  0  0  0  0  0  0  0  0
    5.6693   -0.5793    0.0512 C   0  0  0  0  0  0  0  0  0  0  0  0
   -3.9754    2.2910    0.6866 C   0  0  0  0  0  0  0  0  0  0  0  0
    6.4687   -0.7925   -1.0858 C   0  0  0  0  0  0  0  0  0  0  0  0
    6.2328    0.0476    1.1765 C   0  0  0  0  0  0  0  0  0  0  0  0
   -5.3145    2.1662    0.7179 C   0  0  0  0  0  0  0  0  0  0  0  0
    7.8069   -0.3813   -1.1011 C   0  0  0  0  0  0  0  0  0  0  0  0
    7.5686    0.4579    1.1616 C   0  0  0  0  0  0  0  0  0  0  0  0
   -6.0635    0.8600    0.6120 C   0  0  0  0  0  0  0  0  0  0  0  0
    8.3550    0.2459    0.0269 C   0  0  0  0  0  0  0  0  0  0  0  0
   -6.9779    0.8754   -0.5864 C   0  0  0  0  0  0  0  0  0  0  0  0
   -7.7869   -0.1495   -0.9039 C   0  0  0  0  0  0  0  0  0  0  0  0
   -7.8620   -1.4186   -0.0940 C   0  0  0  0  0  0  0  0  0  0  0  0
   -8.8726   -2.3629   -0.6854 C   0  0  0  0  0  0  0  0  0  0  0  0
   -8.5384   -3.5838   -1.1136 C   0  0  0  0  0  0  0  0  0  0  0  0
    1.0674    1.4057    1.3340 H   0  0  0  0  0  0  0  0  0  0  0  0
    1.0058    1.5869   -0.4646 H   0  0  0  0  0  0  0  0  0  0  0  0
    1.6532   -1.0168    1.0697 H   0  0  0  0  0  0  0  0  0  0  0  0
    1.5907   -0.8352   -0.7288 H   0  0  0  0  0  0  0  0  0  0  0  0
   -0.7658   -0.2993    1.2252 H   0  0  0  0  0  0  0  0  0  0  0  0
   -0.8277   -0.1181   -0.5734 H   0  0  0  0  0  0  0  0  0  0  0  0
    3.4261    0.8691   -0.6195 H   0  0  0  0  0  0  0  0  0  0  0  0
    3.4781    0.6909    1.1782 H   0  0  0  0  0  0  0  0  0  0  0  0
   -1.3517    2.1231    1.4897 H   0  0  0  0  0  0  0  0  0  0  0  0
   -1.4137    2.3042   -0.3098 H   0  0  0  0  0  0  0  0  0  0  0  0
    3.9815   -1.5510   -0.8848 H   0  0  0  0  0  0  0  0  0  0  0  0
    4.0843   -1.7478    0.8998 H   0  0  0  0  0  0  0  0  0  0  0  0
   -3.1820    0.4229    1.3842 H   0  0  0  0  0  0  0  0  0  0  0  0
   -3.2444    0.6043   -0.4202 H   0  0  0  0  0  0  0  0  0  0  0  0
   -3.5625    3.2930    0.7736 H   0  0  0  0  0  0  0  0  0  0  0  0
    6.0549   -1.2764   -1.9623 H   0  0  0  0  0  0  0  0  0  0  0  0
    5.6405    0.2166    2.0668 H   0  0  0  0  0  0  0  0  0  0  0  0
   -5.9061    3.0710    0.8289 H   0  0  0  0  0  0  0  0  0  0  0  0
    7.9952    0.9401    2.0317 H   0  0  0  0  0  0  0  0  0  0  0  0
   -6.6662    0.7326    1.5359 H   0  0  0  0  0  0  0  0  0  0  0  0
   -5.3764   -0.0053    0.5229 H   0  0  0  0  0  0  0  0  0  0  0  0
    9.3889    0.5676    0.0260 H   0  0  0  0  0  0  0  0  0  0  0  0
   -6.9918    1.7510   -1.2312 H   0  0  0  0  0  0  0  0  0  0  0  0
    9.4826   -0.3259   -2.2553 H   0  0  0  0  0  0  0  0  0  0  0  0
   -8.4116   -0.0473   -1.7882 H   0  0  0  0  0  0  0  0  0  0  0  0
   -6.8551   -1.8897   -0.0624 H   0  0  0  0  0  0  0  0  0  0  0  0
   -8.1752   -1.1787    0.9441 H   0  0  0  0  0  0  0  0  0  0  0  0
   -9.9072   -2.0411   -0.7647 H   0  0  0  0  0  0  0  0  0  0  0  0
   -9.2966   -4.2366   -1.5338 H   0  0  0  0  0  0  0  0  0  0  0  0
   -7.5157   -3.9428   -1.0512 H   0  0  0  0  0  0  0  0  0  0  0  0
  1 14  1  0  0  0  0
  1 46  1  0  0  0  0
  2  3  1  0  0  0  0
  2  4  1  0  0  0  0
  2 23  1  0  0  0  0
  2 24  1  0  0  0  0
  3  5  1  0  0  0  0
  3 25  1  0  0  0  0
  3 26  1  0  0  0  0
  4  6  1  0  0  0  0
  4 27  1  0  0  0  0
  4 28  1  0  0  0  0
  5  7  1  0  0  0  0
  5 29  1  0  0  0  0
  5 30  1  0  0  0  0
  6  8  1  0  0  0  0
  6 31  1  0  0  0  0
  6 32  1  0  0  0  0
  7  9  1  0  0  0  0
  7 33  1  0  0  0  0
  7 34  1  0  0  0  0
  8 10  1  0  0  0  0
  8 35  1  0  0  0  0
  8 36  1  0  0  0  0
  9 11  2  0  0  0  0
  9 12  1  0  0  0  0
 10 13  2  0  0  0  0
 10 37  1  0  0  0  0
 11 14  1  0  0  0  0
 11 38  1  0  0  0  0
 12 15  2  0  0  0  0
 12 39  1  0  0  0  0
 13 16  1  0  0  0  0
 13 40  1  0  0  0  0
 14 17  2  0  0  0  0
 15 17  1  0  0  0  0
 15 41  1  0  0  0  0
 16 18  1  0  0  0  0
 16 42  1  0  0  0  0
 16 43  1  0  0  0  0
 17 44  1  0  0  0  0
 18 19  2  0  0  0  0
 18 45  1  0  0  0  0
 19 20  1  0  0  0  0
 19 47  1  0  0  0  0
 20 21  1  0  0  0  0
 20 48  1  0  0  0  0
 20 49  1  0  0  0  0
 21 22  2  0  0  0  0
 21 50  1  0  0  0  0
 22 51  1  0  0  0  0
 22 52  1  0  0  0  0
M  END
>  <MOL Chiral Flag>
0

>  <PUBCHEM_COMPOUND_CID>
11266523

>  <PUBCHEM_CONFORMER_RMSD>
1.2

>  <PUBCHEM_CONFORMER_DIVERSEORDER>
1
148
184
233
37
40
307
434
58
196
114
126
257
10
18
294
421
155
163
314
73
33
175
186
372
47
194
61
69
308
165
266
180
139
6
199
7
337
11
290
305
234
9
298
160
188
106
15
440
392
63
45
22
46
457
75
191
268
239
291
68
88
98
377
112
13
232
76
200
381
295
259
277
92
443
150
170
323
362
195
89
341
235
50
87
351
455
243
245
321
197
283
427
177
293
349
183
25
105
153
442
441
102
424
428
214
185
258
416
403
131
208
109
99
116
158
101
370
247
261
300
448
382
119
390
271
64
230
264
398
83
220
187
108
20
278
2
240
449
130
301
368
345
445
400
19
44
310
202
456
174
179
121
39
111
86
100
395
302
320
425
113
446
338
172
327
212
385
346
242
159
42
137
161
3
210
4
383
120
140
181
236
226
59
189
62
36
65
138
303
127
267
28
325
430
228
463
74
224
299
330
193
304
43
311
57
296
124
72
366
227
66
136
152
60
347
8
282
203
48
56
348
289
23
97
178
24
71
462
438
134
333
52
270
31
285
154
166
316
273
317
464
231
276
248
217
125
29
16
107
246
211
253
12
281
297
171
274
388
326
315
149
394
354
80
225
164
205
198
143
223
399
391
118
84
414
350
426
27
393
168
103
369
251
219
104
26
284
439
358
49
401
423
81
133
447
129
409
465
318
374
450
204
115
379
53
147
218
207
460
309
397
386
38
387
407
117
128
406
142
355
279
313
222
352
213
94
373
329
260
312
51
410
356
55
451
123
429
411
82
380
461
35
135
262
78
90
96
249
144
353
319
93
254
132
331
288
192
237
342
77
14
328
256
332
340
422
420
34
173
79
306
241
146
404
357
367
70
215
437
419
275
85
334
263
182
280
453
417
157
269
238
156
339
292
145
363
252
21
436
359
151
402
432
95
412
67
324
378
206
433
244
110
405
408
454
190
162
122
360
365
32
444
375
459
54
41
286
415
216
265
221
335
376
287
343
361
435
229
458
250
141
389
91
452
418
364
336
5
176
396
344
17
255
167
272
322
413
209
30
371
384
201
431
169

>  <PUBCHEM_MMFF94_PARTIAL_CHARGES>
29
1 -0.53
10 -0.29
11 -0.15
12 -0.15
13 -0.29
14 0.08
15 -0.15
16 0.28
17 -0.15
18 -0.29
19 -0.29
20 0.28
21 -0.29
22 -0.3
37 0.15
38 0.15
39 0.15
40 0.15
41 0.15
44 0.15
45 0.15
46 0.45
47 0.15
50 0.15
51 0.15
52 0.15
7 0.14
8 0.14
9 -0.14

>  <PUBCHEM_EFFECTIVE_ROTOR_COUNT>
12

>  <PUBCHEM_PHARMACOPHORE_FEATURES>
3
1 1 donor
1 22 hydrophobe
6 9 11 12 14 15 17 rings

>  <PUBCHEM_HEAVY_ATOM_COUNT>
22

>  <PUBCHEM_ATOM_DEF_STEREO_COUNT>
0

>  <PUBCHEM_ATOM_UDEF_STEREO_COUNT>
0

>  <PUBCHEM_BOND_DEF_STEREO_COUNT>
2

>  <PUBCHEM_BOND_UDEF_STEREO_COUNT>
0

>  <PUBCHEM_ISOTOPIC_ATOM_COUNT>
0

>  <PUBCHEM_COMPONENT_COUNT>
1

>  <PUBCHEM_CACTVS_TAUTO_COUNT>
9

>  <PUBCHEM_CONFORMER_ID>
00ABE9DB00000094

>  <PUBCHEM_MMFF94_ENERGY>
29.6923

>  <PUBCHEM_FEATURE_SELFOVERLAP>
15.223

>  <PUBCHEM_SHAPE_FINGERPRINT>
10162869 55 17603304882481856260
11181472 205 10591767606159949538
11724838 91 18186805760456469804
1361 4 18339079277007211495
13914758 101 8934995979776260940
14142895 15 18335988661965287580
14178184 131 18059851835830345295
14202775 3 18201160945883851870
14251764 18 18260269625117830888
14344974 52 18343587365961726308
14429380 56 16660650682877844012
14671636 106 18339924913196573151
15461852 350 18410579478419897487
15979999 66 18040714775075817013
21095123 145 17704069611864818189
21150785 3 17967251983475069012
22224240 67 18261110738812430408
23389318 12 18040155140899307740
23424782 7 18272651251174870616
2747138 104 17418091001214675960
2835820 83 18265897055417713691
28498 318 11891335327460351288
437795 163 18408321081953885315
54039377 194 18188215403536565963
54583773 228 18336552728256674116
59682541 35 17988917882002188000
636783 150 18190465046781640955
9953998 17 17846782880731229657

>  <PUBCHEM_SHAPE_MULTIPOLES>
446.88
34.95
2.96
1.05
6.99
1.78
-0.09
18.16
0.73
-11.84
-0.21
2.02
0.07
-1.82

>  <PUBCHEM_SHAPE_SELFOVERLAP>
873.849

>  <PUBCHEM_SHAPE_VOLUME>
267.4

>  <PUBCHEM_COORDINATE_TYPE>
2
5
10

$$$$
